sad/pglib_opf_case60_c__sad.m
%%%%%%%%%%%%%%%%%%%%%%%%%%%%%%%%%%%%%%%%%%%%%%%%%%%%%%%%%%%%%%%%%%%%%%%%%%%
%%%%                                                                  %%%%%
%%%%    IEEE PES Power Grid Library - Optimal Power Flow - v21.07     %%%%%
%%%%          (https://github.com/power-grid-lib/pglib-opf)           %%%%%
%%%%             Benchmark Group - Small Angle Difference             %%%%%
%%%%                         29 - July - 2021                         %%%%%
%%%%                                                                  %%%%%
%%%%%%%%%%%%%%%%%%%%%%%%%%%%%%%%%%%%%%%%%%%%%%%%%%%%%%%%%%%%%%%%%%%%%%%%%%%
function mpc = pglib_opf_case60_c__sad
mpc.version = '2';
mpc.baseMVA = 100.0;

%% bus data
%	bus_i	type	Pd	Qd	Gs	Bs	area	Vm	Va	baseKV	zone	Vmax	Vmin
mpc.bus = [
	1	 1	 200.0	 80.0	 0.0	 -340.12	 1	    1.00000	    0.00000	 130.0	 1	    1.10000	    0.90000;
	2	 1	 300.0	 100.0	 0.0	 0.0	 1	    1.00000	    0.00000	 130.0	 1	    1.10000	    0.90000;
	3	 1	 100.0	 40.0	 0.0	 0.0	 1	    1.00000	    0.00000	 130.0	 1	    1.10000	    0.90000;
	4	 1	 280.0	 95.0	 0.0	 150.0	 1	    1.00000	    0.00000	 130.0	 1	    1.10000	    0.90000;
	5	 1	 402.2198	 190.111	 0.0	 200.0	 1	    1.00000	    0.00000	 130.0	 1	    1.10000	    0.90000;
	6	 1	 201.2099	 75.06049	 0.0	 0.0	 1	    1.00000	    0.00000	 130.0	 1	    1.10000	    0.90000;
	7	 1	 154.2076	 96.21037	 0.0	 100.0	 1	    1.00000	    0.00000	 130.0	 1	    1.10000	    0.90000;
	8	 1	 536.4263	 286.8214	 0.0	 200.0	 1	    1.00000	    0.00000	 130.0	 1	    1.10000	    0.90000;
	9	 1	 469.4231	 238.4712	 0.0	 200.0	 1	    1.00000	    0.00000	 130.0	 1	    1.10000	    0.90000;
	10	 1	 100.0	 30.0	 0.0	 0.0	 1	    1.00000	    0.00000	 220.0	 1	    1.10000	    0.90000;
	11	 1	 200.0	 50.0	 0.0	 0.0	 1	    1.00000	    0.00000	 220.0	 1	    1.10000	    0.90000;
	12	 1	 300.0	 100.0	 0.0	 -400.0	 1	    1.00000	    0.00000	 400.0	 1	    1.10000	    0.90000;
	13	 1	 2000.0	 500.0	 0.0	 0.0	 1	    1.00000	    0.00000	 400.0	 1	    1.10000	    0.90000;
	14	 1	 362.0178	 151.1009	 0.0	 200.0	 1	    1.00000	    0.00000	 400.0	 1	    1.10000	    0.90000;
	15	 1	 268.2132	 143.4107	 0.0	 0.0	 1	    1.00000	    0.00000	 400.0	 1	    1.10000	    0.90000;
	16	 1	 603.4296	 288.1715	 0.0	 200.0	 1	    1.00000	    0.00000	 400.0	 1	    1.10000	    0.90000;
	17	 1	 469.4231	 238.4712	 0.0	 100.0	 1	    1.00000	    0.00000	 400.0	 1	    1.10000	    0.90000;
	18	 1	 67.0033	 48.35017	 0.0	 0.0	 1	    1.00000	    0.00000	 400.0	 1	    1.10000	    0.90000;
	19	 1	 536.4263	 288.8214	 0.0	 100.0	 1	    1.00000	    0.00000	 400.0	 1	    1.10000	    0.90000;
	20	 1	 500.0	 149.0	 0.0	 0.0	 1	    1.00000	    0.00000	 400.0	 1	    1.10000	    0.90000;
	21	 1	 300.0	 100.0	 0.0	 0.0	 1	    1.00000	    0.00000	 400.0	 1	    1.10000	    0.90000;
	22	 1	 590.0	 300.0	 0.0	 0.0	 1	    1.00000	    0.00000	 400.0	 1	    1.10000	    0.90000;
	23	 1	 0.0	 0.0	 0.0	 -100.0	 1	    1.00000	    0.00000	 400.0	 1	    1.10000	    0.90000;
	24	 1	 0.0	 0.0	 0.0	 0.0	 1	    1.00000	    0.00000	 130.0	 1	    1.10000	    0.90000;
	25	 1	 0.0	 0.0	 0.0	 0.0	 1	    1.00000	    0.00000	 130.0	 1	    1.10000	    0.90000;
	26	 1	 0.0	 0.0	 0.0	 0.0	 1	    1.00000	    0.00000	 400.0	 1	    1.10000	    0.90000;
	27	 1	 0.0	 0.0	 0.0	 0.0	 1	    1.00000	    0.00000	 400.0	 1	    1.10000	    0.90000;
	28	 1	 0.0	 0.0	 0.0	 0.0	 1	    1.00000	    0.00000	 400.0	 1	    1.10000	    0.90000;
	29	 1	 0.0	 0.0	 0.0	 0.0	 1	    1.00000	    0.00000	 400.0	 1	    1.10000	    0.90000;
	30	 1	 0.0	 0.0	 0.0	 0.0	 1	    1.00000	    0.00000	 400.0	 1	    1.10000	    0.90000;
	31	 1	 0.0	 0.0	 0.0	 0.0	 1	    1.00000	    0.00000	 400.0	 1	    1.10000	    0.90000;
	32	 1	 0.0	 0.0	 0.0	 0.0	 1	    1.00000	    0.00000	 400.0	 1	    1.10000	    0.90000;
	33	 1	 0.0	 0.0	 0.0	 0.0	 1	    1.00000	    0.00000	 400.0	 1	    1.10000	    0.90000;
	34	 1	 0.0	 0.0	 0.0	 0.0	 1	    1.00000	    0.00000	 400.0	 1	    1.10000	    0.90000;
	35	 1	 0.0	 0.0	 0.0	 0.0	 1	    1.00000	    0.00000	 400.0	 1	    1.10000	    0.90000;
	36	 1	 0.0	 0.0	 0.0	 0.0	 1	    1.00000	    0.00000	 400.0	 1	    1.10000	    0.90000;
	37	 1	 0.0	 0.0	 0.0	 0.0	 1	    1.00000	    0.00000	 400.0	 1	    1.10000	    0.90000;
	38	 2	 0.0	 0.0	 0.0	 0.0	 1	    1.00000	    0.00000	 15.0	 1	    1.10000	    0.90000;
	39	 2	 0.0	 0.0	 0.0	 0.0	 1	    1.00000	    0.00000	 15.0	 1	    1.10000	    0.90000;
	40	 2	 0.0	 0.0	 0.0	 0.0	 1	    1.00000	    0.00000	 15.0	 1	    1.10000	    0.90000;
	41	 2	 0.0	 0.0	 0.0	 0.0	 1	    1.00000	    0.00000	 15.0	 1	    1.10000	    0.90000;
	42	 2	 0.0	 0.0	 0.0	 0.0	 1	    1.00000	    0.00000	 15.0	 1	    1.10000	    0.90000;
	43	 2	 0.0	 0.0	 0.0	 0.0	 1	    1.00000	    0.00000	 15.0	 1	    1.10000	    0.90000;
	44	 2	 0.0	 0.0	 0.0	 0.0	 1	    1.00000	    0.00000	 15.0	 1	    1.10000	    0.90000;
	45	 2	 0.0	 0.0	 0.0	 0.0	 1	    1.00000	    0.00000	 15.0	 1	    1.10000	    0.90000;
	46	 2	 0.0	 0.0	 0.0	 0.0	 1	    1.00000	    0.00000	 15.0	 1	    1.10000	    0.90000;
	47	 2	 0.0	 0.0	 0.0	 0.0	 1	    1.00000	    0.00000	 15.0	 1	    1.10000	    0.90000;
	48	 2	 0.0	 0.0	 0.0	 0.0	 1	    1.00000	    0.00000	 15.0	 1	    1.10000	    0.90000;
	49	 2	 0.0	 0.0	 0.0	 0.0	 1	    1.00000	    0.00000	 15.0	 1	    1.10000	    0.90000;
	50	 2	 0.0	 0.0	 0.0	 0.0	 1	    1.00000	    0.00000	 15.0	 1	    1.10000	    0.90000;
	51	 2	 0.0	 0.0	 0.0	 0.0	 1	    1.00000	    0.00000	 15.0	 1	    1.10000	    0.90000;
	52	 3	 0.0	 0.0	 0.0	 0.0	 1	    1.00000	    0.00000	 15.0	 1	    1.10000	    0.90000;
	53	 2	 0.0	 0.0	 0.0	 0.0	 1	    1.00000	    0.00000	 15.0	 1	    1.10000	    0.90000;
	54	 2	 0.0	 0.0	 0.0	 0.0	 1	    1.00000	    0.00000	 15.0	 1	    1.10000	    0.90000;
	55	 2	 0.0	 0.0	 0.0	 0.0	 1	    1.00000	    0.00000	 15.0	 1	    1.10000	    0.90000;
	56	 2	 0.0	 0.0	 0.0	 0.0	 1	    1.00000	    0.00000	 15.0	 1	    1.10000	    0.90000;
	57	 2	 0.0	 0.0	 0.0	 0.0	 1	    1.00000	    0.00000	 15.0	 1	    1.10000	    0.90000;
	58	 2	 0.0	 0.0	 0.0	 0.0	 1	    1.00000	    0.00000	 15.0	 1	    1.10000	    0.90000;
	59	 2	 0.0	 0.0	 0.0	 0.0	 1	    1.00000	    0.00000	 15.0	 1	    1.10000	    0.90000;
	60	 2	 0.0	 0.0	 0.0	 0.0	 1	    1.00000	    0.00000	 15.0	 1	    1.10000	    0.90000;
];

%% generator data
%	bus	Pg	Qg	Qmax	Qmin	Vg	mBase	status	Pmax	Pmin
mpc.gen = [
	38	 365.0	 0.0	 720.0	 -720.0	 1.0	 800.0	 1	 720.0	 10.0;
	39	 275.0	 0.0	 540.0	 -540.0	 1.0	 600.0	 1	 540.0	 10.0;
	40	 320.0	 0.0	 630.0	 -630.0	 1.0	 700.0	 1	 630.0	 10.0;
	41	 275.0	 0.0	 540.0	 -540.0	 1.0	 600.0	 1	 540.0	 10.0;
	42	 242.5	 50.0	 325.0	 -225.0	 1.0	 400.0	 1	 475.0	 10.0;
	43	 285.0	 100.0	 560.0	 -360.0	 1.0	 600.0	 1	 560.0	 10.0;
	44	 195.0	 40.0	 360.0	 -280.0	 1.0	 400.0	 1	 380.0	 10.0;
	45	 487.5	 100.0	 965.0	 -765.0	 1.0	 1000.0	 1	 965.0	 10.0;
	46	 455.0	 0.0	 900.0	 -900.0	 1.0	 1000.0	 1	 900.0	 10.0;
	47	 365.0	 0.0	 720.0	 -720.0	 1.0	 800.0	 1	 720.0	 10.0;
	48	 290.0	 100.0	 570.0	 -370.0	 1.0	 600.0	 1	 570.0	 10.0;
	49	 292.5	 50.0	 515.0	 -415.0	 1.0	 600.0	 1	 575.0	 10.0;
	50	 0.0	 0.0	 570.0	 -570.0	 1.0	 600.0	 1	 0.0	 0.0;
	51	 320.0	 0.0	 630.0	 -630.0	 1.0	 700.0	 1	 630.0	 10.0;
	52	 1405.0	 650.0	 1840.0	 -540.0	 1.0	 3000.0	 1	 2800.0	 10.0;
	53	 275.0	 20.0	 580.0	 -540.0	 1.0	 600.0	 1	 540.0	 10.0;
	54	 320.0	 0.0	 630.0	 -630.0	 1.0	 700.0	 1	 630.0	 10.0;
	55	 320.0	 0.0	 630.0	 -630.0	 1.0	 700.0	 1	 630.0	 10.0;
	56	 275.0	 0.0	 540.0	 -540.0	 1.0	 600.0	 1	 540.0	 10.0;
	57	 275.0	 0.0	 540.0	 -540.0	 1.0	 600.0	 1	 540.0	 10.0;
	58	 275.0	 0.0	 540.0	 -540.0	 1.0	 600.0	 1	 540.0	 10.0;
	59	 285.0	 35.0	 520.0	 -450.0	 1.0	 600.0	 1	 560.0	 10.0;
	60	 2255.0	 975.0	 4000.0	 -2050.0	 1.0	 5000.0	 1	 4500.0	 10.0;
];

%% generator cost data
%	2	startup	shutdown	n	c(n-1)	...	c0
mpc.gencost = [
	2	 0.0	 0.0	 3	   0.000000	  10.000000	   0.000000;
	2	 0.0	 0.0	 3	   0.000000	  20.000000	   0.000000;
	2	 0.0	 0.0	 3	   0.000000	  10.000000	   0.000000;
	2	 0.0	 0.0	 3	   0.000000	  30.000000	   0.000000;
	2	 0.0	 0.0	 3	   0.000000	  10.000000	   0.000000;
	2	 0.0	 0.0	 3	   0.000000	  20.000000	   0.000000;
	2	 0.0	 0.0	 3	   0.000000	  10.000000	   0.000000;
	2	 0.0	 0.0	 3	   0.000000	  30.000000	   0.000000;
	2	 0.0	 0.0	 3	   0.000000	  10.000000	   0.000000;
	2	 0.0	 0.0	 3	   0.000000	  10.000000	   0.000000;
	2	 0.0	 0.0	 3	   0.000000	  20.000000	   0.000000;
	2	 0.0	 0.0	 3	   0.000000	  10.000000	   0.000000;
	2	 0.0	 0.0	 3	   0.000000	  30.000000	   0.000000;
	2	 0.0	 0.0	 3	   0.000000	  10.000000	   0.000000;
	2	 0.0	 0.0	 3	   0.000000	  20.000000	   0.000000;
	2	 0.0	 0.0	 3	   0.000000	  10.000000	   0.000000;
	2	 0.0	 0.0	 3	   0.000000	  10.000000	   0.000000;
	2	 0.0	 0.0	 3	   0.000000	  30.000000	   0.000000;
	2	 0.0	 0.0	 3	   0.000000	  10.000000	   0.000000;
	2	 0.0	 0.0	 3	   0.000000	  20.000000	   0.000000;
	2	 0.0	 0.0	 3	   0.000000	  10.000000	   0.000000;
	2	 0.0	 0.0	 3	   0.000000	  30.000000	   0.000000;
	2	 0.0	 0.0	 3	   0.000000	  10.000000	   0.000000;
];

%% branch data
%	fbus	tbus	r	x	b	rateA	rateB	rateC	ratio	angle	status	angmin	angmax
mpc.branch = [
	1	 3	 0.01	 0.07	 0.013804	 175.0	 175.0	 175.0	 0.0	 0.0	 1	 -6.72293938379	 6.72293938379;
	1	 3	 0.01	 0.07	 0.013804	 175.0	 175.0	 175.0	 0.0	 0.0	 1	 -6.72293938379	 6.72293938379;
	2	 24	 0.014024	 0.09	 0.018052	 175.0	 175.0	 175.0	 0.0	 0.0	 1	 -6.72293938379	 6.72293938379;
	2	 24	 0.014024	 0.09	 0.018052	 175.0	 175.0	 175.0	 0.0	 0.0	 1	 -6.72293938379	 6.72293938379;
	3	 24	 0.006982	 0.05	 0.010088	 175.0	 175.0	 175.0	 0.0	 0.0	 1	 -6.72293938379	 6.72293938379;
	3	 24	 0.006982	 0.05	 0.010088	 175.0	 175.0	 175.0	 0.0	 0.0	 1	 -6.72293938379	 6.72293938379;
	25	 4	 0.03	 0.2	 0.030263	 175.0	 175.0	 175.0	 0.0	 0.0	 1	 -6.72293938379	 6.72293938379;
	25	 4	 0.03	 0.2	 0.030263	 175.0	 175.0	 175.0	 0.0	 0.0	 1	 -6.72293938379	 6.72293938379;
	5	 7	 0.01	 0.06	 0.012211	 175.0	 175.0	 175.0	 0.0	 0.0	 1	 -6.72293938379	 6.72293938379;
	5	 7	 0.01	 0.06	 0.012211	 175.0	 175.0	 175.0	 0.0	 0.0	 1	 -6.72293938379	 6.72293938379;
	5	 9	 0.01497	 0.12	 0.024954	 175.0	 175.0	 175.0	 0.0	 0.0	 1	 -6.72293938379	 6.72293938379;
	5	 9	 0.01497	 0.12	 0.024954	 175.0	 175.0	 175.0	 0.0	 0.0	 1	 -6.72293938379	 6.72293938379;
	6	 8	 0.037988	 0.28	 0.059995	 175.0	 175.0	 175.0	 0.0	 0.0	 1	 -6.72293938379	 6.72293938379;
	6	 8	 0.037988	 0.28	 0.059995	 175.0	 175.0	 175.0	 0.0	 0.0	 1	 -6.72293938379	 6.72293938379;
	6	 9	 0.05	 0.3	 0.059995	 175.0	 175.0	 175.0	 0.0	 0.0	 1	 -6.72293938379	 6.72293938379;
	7	 8	 0.01	 0.08	 0.015928	 175.0	 175.0	 175.0	 0.0	 0.0	 1	 -6.72293938379	 6.72293938379;
	7	 8	 0.01	 0.08	 0.015928	 175.0	 175.0	 175.0	 0.0	 0.0	 1	 -6.72293938379	 6.72293938379;
	10	 11	 0.012004	 0.09	 0.015205	 250.0	 250.0	 250.0	 0.0	 0.0	 1	 -6.72293938379	 6.72293938379;
	10	 11	 0.012004	 0.09	 0.015205	 250.0	 250.0	 250.0	 0.0	 0.0	 1	 -6.72293938379	 6.72293938379;
	26	 23	 0.001	 0.008	 0.201062	 700.0	 700.0	 700.0	 0.0	 0.0	 1	 -6.72293938379	 6.72293938379;
	26	 27	 0.006	 0.06	 1.799488	 700.0	 700.0	 700.0	 0.0	 0.0	 1	 -6.72293938379	 6.72293938379;
	26	 28	 0.004	 0.04	 1.201344	 700.0	 700.0	 700.0	 0.0	 0.0	 1	 -6.72293938379	 6.72293938379;
	26	 12	 0.005	 0.045	 1.4024	 700.0	 700.0	 700.0	 0.0	 0.0	 1	 -6.72293938379	 6.72293938379;
	23	 28	 0.004	 0.035	 1.05056	 700.0	 700.0	 700.0	 0.0	 0.0	 1	 -6.72293938379	 6.72293938379;
	23	 12	 0.005	 0.05	 1.49792	 700.0	 700.0	 700.0	 0.0	 0.0	 1	 -6.72293938379	 6.72293938379;
	27	 29	 0.004	 0.04	 1.201344	 700.0	 700.0	 700.0	 0.0	 0.0	 1	 -6.72293938379	 6.72293938379;
	27	 30	 0.01	 0.1	 3.000864	 700.0	 700.0	 700.0	 0.0	 0.0	 1	 -6.72293938379	 6.72293938379;
	30	 15	 0.0	 -0.04	 0.0	 700.0	 700.0	 700.0	 0.0	 0.0	 1	 -6.72293938379	 6.72293938379;
	28	 31	 0.004	 0.04	 1.201344	 700.0	 700.0	 700.0	 0.0	 0.0	 1	 -6.72293938379	 6.72293938379;
	28	 31	 0.004	 0.04	 1.201344	 700.0	 700.0	 700.0	 0.0	 0.0	 1	 -6.72293938379	 6.72293938379;
	31	 29	 0.001	 0.01	 0.301594	 700.0	 700.0	 700.0	 0.0	 0.0	 1	 -6.72293938379	 6.72293938379;
	31	 32	 0.006	 0.08	 2.397664	 700.0	 700.0	 700.0	 0.0	 0.0	 1	 -6.72293938379	 6.72293938379;
	32	 14	 0.0	 -0.04	 0.0	 700.0	 700.0	 700.0	 0.0	 0.0	 1	 -6.72293938379	 6.72293938379;
	31	 33	 0.006	 0.08	 2.397664	 700.0	 700.0	 700.0	 0.0	 0.0	 1	 -6.72293938379	 6.72293938379;
	33	 14	 0.0	 -0.04	 0.0	 700.0	 700.0	 700.0	 0.0	 0.0	 1	 -6.72293938379	 6.72293938379;
	29	 34	 0.01	 0.066669	 2.000576	 700.0	 700.0	 700.0	 0.0	 0.0	 1	 -6.72293938379	 6.72293938379;
	34	 15	 0.0	 -0.026669	 0.0	 700.0	 700.0	 700.0	 0.0	 0.0	 1	 -6.72293938379	 6.72293938379;
	29	 35	 0.006	 0.08	 2.397664	 700.0	 700.0	 700.0	 0.0	 0.0	 1	 -6.72293938379	 6.72293938379;
	35	 36	 0.0	 -0.03	 0.0	 700.0	 700.0	 700.0	 0.0	 0.0	 1	 -6.72293938379	 6.72293938379;
	14	 36	 0.003	 0.03	 0.899744	 700.0	 700.0	 700.0	 0.0	 0.0	 1	 -6.72293938379	 6.72293938379;
	14	 20	 0.006	 0.045	 1.301888	 700.0	 700.0	 700.0	 0.0	 0.0	 1	 -6.72293938379	 6.72293938379;
	15	 16	 0.002	 0.015	 0.497632	 700.0	 700.0	 700.0	 0.0	 0.0	 1	 -6.72293938379	 6.72293938379;
	15	 36	 0.002	 0.02	 0.598176	 700.0	 700.0	 700.0	 0.0	 0.0	 1	 -6.72293938379	 6.72293938379;
	16	 36	 0.001	 0.01	 0.301594	 700.0	 700.0	 700.0	 0.0	 0.0	 1	 -6.72293938379	 6.72293938379;
	16	 17	 0.001	 0.01	 0.301594	 700.0	 700.0	 700.0	 0.0	 0.0	 1	 -6.72293938379	 6.72293938379;
	16	 18	 0.002	 0.02	 0.598176	 700.0	 700.0	 700.0	 0.0	 0.0	 1	 -6.72293938379	 6.72293938379;
	36	 37	 0.002	 0.02	 0.598176	 700.0	 700.0	 700.0	 0.0	 0.0	 1	 -6.72293938379	 6.72293938379;
	36	 37	 0.002	 0.02	 0.598176	 700.0	 700.0	 700.0	 0.0	 0.0	 1	 -6.72293938379	 6.72293938379;
	37	 19	 0.004	 0.04	 1.201344	 700.0	 700.0	 700.0	 0.0	 0.0	 1	 -6.72293938379	 6.72293938379;
	37	 19	 0.004	 0.04	 1.201344	 700.0	 700.0	 700.0	 0.0	 0.0	 1	 -6.72293938379	 6.72293938379;
	37	 21	 0.011	 0.08	 2.397664	 700.0	 700.0	 700.0	 0.0	 0.0	 1	 -6.72293938379	 6.72293938379;
	17	 18	 0.001	 0.015	 0.497632	 700.0	 700.0	 700.0	 0.0	 0.0	 1	 -6.72293938379	 6.72293938379;
	20	 21	 0.002	 0.02	 0.598176	 700.0	 700.0	 700.0	 0.0	 0.0	 1	 -6.72293938379	 6.72293938379;
	21	 22	 0.003	 0.03	 0.899744	 700.0	 700.0	 700.0	 0.0	 0.0	 1	 -6.72293938379	 6.72293938379;
	21	 22	 0.003	 0.03	 0.899744	 700.0	 700.0	 700.0	 0.0	 0.0	 1	 -6.72293938379	 6.72293938379;
	12	 13	 0.003	 0.03	 3.000864	 700.0	 700.0	 700.0	 0.0	 0.0	 1	 -6.72293938379	 6.72293938379;
	12	 13	 0.003	 0.03	 3.000864	 700.0	 700.0	 700.0	 0.0	 0.0	 1	 -6.72293938379	 6.72293938379;
	2	 38	 0.0	 0.01875	 0.0	 800.0	 800.0	 800.0	 1.0	 0.0	 1	 -6.72293938379	 6.72293938379;
	3	 39	 0.0	 0.025	 0.0	 600.0	 600.0	 600.0	 1.0	 0.0	 1	 -6.72293938379	 6.72293938379;
	24	 40	 0.0	 0.021429	 0.0	 700.0	 700.0	 700.0	 1.0	 0.0	 1	 -6.72293938379	 6.72293938379;
	25	 41	 0.0	 0.025	 0.0	 600.0	 600.0	 600.0	 1.0	 0.0	 1	 -6.72293938379	 6.72293938379;
	4	 42	 0.0	 0.06	 0.0	 1250.0	 1250.0	 1250.0	 1.0	 0.0	 1	 -6.72293938379	 6.72293938379;
	6	 43	 0.0	 0.0375	 0.0	 400.0	 400.0	 400.0	 1.0	 0.0	 1	 -6.72293938379	 6.72293938379;
	7	 44	 0.0	 0.075	 0.0	 1200.0	 1200.0	 1200.0	 1.0	 0.0	 1	 -6.72293938379	 6.72293938379;
	11	 45	 0.0	 0.017647	 0.0	 850.0	 850.0	 850.0	 1.0	 0.0	 1	 -6.72293938379	 6.72293938379;
	26	 46	 0.0	 0.015	 0.0	 1000.0	 1000.0	 1000.0	 1.0	 0.0	 1	 -6.72293938379	 6.72293938379;
	23	 47	 0.0	 0.01875	 0.0	 800.0	 800.0	 800.0	 1.0	 0.0	 1	 -6.72293938379	 6.72293938379;
	27	 48	 0.0	 0.05	 0.0	 300.0	 300.0	 300.0	 1.0	 0.0	 1	 -6.72293938379	 6.72293938379;
	31	 49	 0.0	 0.042857	 0.0	 1350.0	 1350.0	 1350.0	 1.0	 0.0	 1	 -6.72293938379	 6.72293938379;
	14	 50	 0.0	 0.033333	 0.0	 300.0	 300.0	 300.0	 1.0	 0.0	 1	 -6.72293938379	 6.72293938379;
	15	 51	 0.0	 0.021429	 0.0	 700.0	 700.0	 700.0	 1.0	 0.0	 1	 -6.72293938379	 6.72293938379;
	18	 52	 0.0	 0.025	 0.0	 600.0	 600.0	 600.0	 1.0	 0.0	 1	 -6.72293938379	 6.72293938379;
	18	 53	 0.0	 0.025	 0.0	 600.0	 600.0	 600.0	 1.0	 0.0	 1	 -6.72293938379	 6.72293938379;
	19	 54	 0.0	 0.021429	 0.0	 700.0	 700.0	 700.0	 1.0	 0.0	 1	 -6.72293938379	 6.72293938379;
	19	 55	 0.0	 0.021429	 0.0	 700.0	 700.0	 700.0	 1.0	 0.0	 1	 -6.72293938379	 6.72293938379;
	21	 56	 0.0	 0.025	 0.0	 600.0	 600.0	 600.0	 1.0	 0.0	 1	 -6.72293938379	 6.72293938379;
	22	 57	 0.0	 0.025	 0.0	 600.0	 600.0	 600.0	 1.0	 0.0	 1	 -6.72293938379	 6.72293938379;
	22	 58	 0.0	 0.025	 0.0	 600.0	 600.0	 600.0	 1.0	 0.0	 1	 -6.72293938379	 6.72293938379;
	12	 59	 0.0	 0.03	 0.0	 500.0	 500.0	 500.0	 1.0	 0.0	 1	 -6.72293938379	 6.72293938379;
	13	 60	 0.0	 0.003333	 0.0	 4500.0	 4500.0	 4500.0	 1.0	 0.0	 1	 -6.72293938379	 6.72293938379;
	26	 1	 0.0	 0.008	 0.0	 1250.0	 1250.0	 1250.0	 0.89286	 0.0	 1	 -6.72293938379	 6.72293938379;
	23	 2	 0.0	 0.008	 0.0	 1250.0	 1250.0	 1250.0	 0.89286	 0.0	 1	 -6.72293938379	 6.72293938379;
	28	 4	 0.0	 0.012	 0.0	 833.3	 833.3	 833.3	 0.93458	 0.0	 1	 -6.72293938379	 6.72293938379;
	31	 10	 0.0	 0.012	 0.0	 833.3	 833.3	 833.3	 0.95238	 0.0	 1	 -6.72293938379	 6.72293938379;
	36	 8	 0.0	 0.01	 0.0	 1000.0	 1000.0	 1000.0	 1.0	 0.0	 1	 -6.72293938379	 6.72293938379;
	36	 8	 0.0	 0.01	 0.0	 1000.0	 1000.0	 1000.0	 1.0	 0.0	 1	 -6.72293938379	 6.72293938379;
	37	 9	 0.0	 0.01	 0.0	 1000.0	 1000.0	 1000.0	 1.0	 0.0	 1	 -6.72293938379	 6.72293938379;
	37	 9	 0.0	 0.01	 0.0	 1000.0	 1000.0	 1000.0	 1.0	 0.0	 1	 -6.72293938379	 6.72293938379;
];

% INFO    : === Translation Options ===
% INFO    : Phase Angle Bound:           6.72293938379 (deg.)
% INFO    : 
% INFO    : === Generator Bounds Update Notes ===
% INFO    : 
% INFO    : === Base KV Replacement Notes ===
% INFO    : 
% INFO    : === Transformer Setting Replacement Notes ===
% INFO    : 
% INFO    : === Line Capacity Monotonicity Notes ===
% INFO    : 
% INFO    : === Writing Matpower Case File Notes ===
